   1015.00     290.24       9.78
   312.50000     290.24387      9.78245      0.00000     0.00000
   937.50000     291.85089      7.09113      0.00000     0.00000
   1562.50000     294.04248      5.74308      0.00000     0.00000
   2187.50000     296.40344      4.98340      0.00000     0.00000
   2812.50000     298.77396      4.20579      0.00000     0.00000
   3437.50000     301.27167      3.29247      0.00000     0.00000
   4062.50000     303.68784      2.49332      0.00000     0.00000
   4687.50000     305.89737      1.83180      0.00000     0.00000
   5312.50000     307.87143      1.30934      0.00000     0.00000
   5937.50000     309.58530      0.90215      0.00000     0.00000
   6562.50000     311.02148      0.60306      0.00000     0.00000
   7187.50000     312.16986      0.39077      0.00000     0.00000
   7812.50000     313.09784      0.23777      0.00000     0.00000
   8437.50000     313.82843      0.13528      0.00000     0.00000
   9062.50000     314.39880      0.07386      0.00000     0.00000
   9687.50000     314.87222      0.03905      0.00000     0.00000
   10312.50000     315.32214      0.02053      0.00000     0.00000
   10937.50000     315.88663      0.01070      0.00000     0.00000
   11562.50000     316.92963      0.00548      0.00000     0.00000
   12187.50000     318.85080      0.00287      0.00000     0.00000
   12812.50000     325.14105      0.00224      0.00000     0.00000
   13437.50000     338.64346      0.00333      0.00000     0.00000
   14062.50000     352.61536      0.00499      0.00000     0.00000
   14687.50000     365.76608      0.00642      0.00000     0.00000
   15312.50000     377.82639      0.00700      0.00000     0.00000
   15937.50000     389.45807      0.00669      0.00000     0.00000
   16562.50000     401.31149      0.00593      0.00000     0.00000
   17187.50000     413.64142      0.00529      0.00000     0.00000
   17812.50000     426.44568      0.00521      0.00000     0.00000
   18437.50000     439.71124      0.00582      0.00000     0.00000
   19062.50000     453.52737      0.00693      0.00000     0.00000
   19687.50000     468.00427      0.00825      0.00000     0.00000
   20312.50000     483.01926      0.00956      0.00000     0.00000
   20937.50000     498.09167      0.01085      0.00000     0.00000
   21562.50000     513.50037      0.01219      0.00000     0.00000
   22187.50000     529.39325      0.01363      0.00000     0.00000
   22812.50000     545.77942      0.01517      0.00000     0.00000
   23437.50000     562.67139      0.01682      0.00000     0.00000
   24062.50000     580.08508      0.01857      0.00000     0.00000
   24687.50000     598.03729      0.02042      0.00000     0.00000
   25312.50000     615.98950      0.02042      0.00000     0.00000
   25937.50000     633.94171      0.02042      0.00000     0.00000
   26562.50000     651.89392      0.02042      0.00000     0.00000
