   1015.00     298.24      17.08
   312.50000     298.23810     17.07751      0.00000     0.00000
   937.50000     300.29141     12.62228      0.00000     0.00000
   1562.50000     302.81854     10.50125      0.00000     0.00000
   2187.50000     305.59320      9.33841      0.00000     0.00000
   2812.50000     308.27292      7.99533      0.00000     0.00000
   3437.50000     310.82147      6.69445      0.00000     0.00000
   4062.50000     313.42493      5.68491      0.00000     0.00000
   4687.50000     316.34604      4.77231      0.00000     0.00000
   5312.50000     319.32751      3.84015      0.00000     0.00000
   5937.50000     322.13791      2.96766      0.00000     0.00000
   6562.50000     324.78253      2.23600      0.00000     0.00000
   7187.50000     327.20502      1.64092      0.00000     0.00000
   7812.50000     329.35229      1.16231      0.00000     0.00000
   8437.50000     331.18332      0.79179      0.00000     0.00000
   9062.50000     332.67267      0.52077      0.00000     0.00000
   9687.50000     333.89575      0.32464      0.00000     0.00000
   10312.50000     334.90659      0.19029      0.00000     0.00000
   10937.50000     335.73422      0.10998      0.00000     0.00000
   11562.50000     336.39722      0.05915      0.00000     0.00000
   12187.50000     336.41681      0.03150      0.00000     0.00000
   12812.50000     336.96936      0.01517      0.00000     0.00000
   13437.50000     340.69012      0.00958      0.00000     0.00000
   14062.50000     344.31674      0.00594      0.00000     0.00000
   14687.50000     350.49164      0.00432      0.00000     0.00000
   15312.50000     360.42630      0.00438      0.00000     0.00000
   15937.50000     373.23682      0.00548      0.00000     0.00000
   16562.50000     387.11993      0.00695      0.00000     0.00000
   17187.50000     400.73685      0.00754      0.00000     0.00000
   17812.50000     413.72528      0.00661      0.00000     0.00000
   18437.50000     426.52585      0.00448      0.00000     0.00000
   19062.50000     439.74994      0.00207      0.00000     0.00000
   19687.50000     453.74124      0.00040      0.00000     0.00000
   20312.50000     468.33566      0.00001      0.00000     0.00000
   20937.50000     482.95316      0.00004      0.00000     0.00000
   21562.50000     497.88028      0.00015      0.00000     0.00000
   22187.50000     513.28522      0.00020      0.00000     0.00000
   22812.50000     529.17194      0.00015      0.00000     0.00000
   23437.50000     545.55054      0.00008      0.00000     0.00000
   24062.50000     562.43494      0.00003      0.00000     0.00000
   24687.50000     579.84155      0.00001      0.00000     0.00000
   25312.50000     597.24817      0.00001      0.00000     0.00000
